
     RDKit          3D

 12 11  0  0  0  0  0  0  0  0999 V2000
   -0.6566    1.3629   -0.7500 O   0  0  0  0  0  0  0  0  0  0  0  0
   -0.0782    0.1181   -0.5732 C   0  0  0  0  0  0  0  0  0  0  0  0
   -1.0182   -0.8166    0.2226 C   0  0  0  0  0  0  0  0  0  0  0  0
   -2.1659   -0.9872   -0.4338 F   0  0  0  0  0  0  0  0  0  0  0  0
   -1.3227   -0.2877    1.4133 F   0  0  0  0  0  0  0  0  0  0  0  0
   -0.4984   -2.0238    0.4341 F   0  0  0  0  0  0  0  0  0  0  0  0
    1.2953    0.2445    0.1255 C   0  0  0  0  0  0  0  0  0  0  0  0
    1.1753    0.8581    1.3085 F   0  0  0  0  0  0  0  0  0  0  0  0
    2.1248    0.9808   -0.6139 F   0  0  0  0  0  0  0  0  0  0  0  0
    1.8856   -0.9304    0.3340 F   0  0  0  0  0  0  0  0  0  0  0  0
   -0.8204    1.7979    0.1011 H   0  0  0  0  0  0  0  0  0  0  0  0
    0.0795   -0.3167   -1.5683 H   0  0  0  0  0  0  0  0  0  0  0  0
  1  2  1  0
  2  3  1  0
  3  4  1  0
  3  5  1  0
  3  6  1  0
  2  7  1  0
  7  8  1  0
  7  9  1  0
  7 10  1  0
  1 11  1  0
  2 12  1  0
M  END
$$$$
