@<TRIPOS>MOLECULE
HFI
   12    11     1     0     0
SMALL
bcc


@<TRIPOS>ATOM
      1 O1          -0.6570     1.3630    -0.7500 oh         1 HFI      -0.539800
      2 C1          -0.0780     0.1180    -0.5730 c3         1 HFI       0.069100
      3 C2          -1.0180    -0.8170     0.2230 c3         1 HFI       0.602900
      4 F1          -2.1660    -0.9870    -0.4340 f          1 HFI      -0.219633
      5 F2          -1.3230    -0.2880     1.4130 f          1 HFI      -0.219633
      6 F3          -0.4980    -2.0240     0.4340 f          1 HFI      -0.219633
      7 C3           1.2950     0.2440     0.1260 c3         1 HFI       0.602900
      8 F4           1.1750     0.8580     1.3080 f          1 HFI      -0.219633
      9 F5           2.1250     0.9810    -0.6140 f          1 HFI      -0.219633
     10 F6           1.8860    -0.9300     0.3340 f          1 HFI      -0.219633
     11 H1          -0.8200     1.7980     0.1010 ho         1 HFI       0.436000
     12 H2           0.0800    -0.3170    -1.5680 h1         1 HFI       0.147700
@<TRIPOS>BOND
     1     1     2 1   
     2     2     3 1   
     3     3     4 1   
     4     3     5 1   
     5     3     6 1   
     6     2     7 1   
     7     7     8 1   
     8     7     9 1   
     9     7    10 1   
    10     1    11 1   
    11     2    12 1   
@<TRIPOS>SUBSTRUCTURE
     1 HFI         1 TEMP              0 ****  ****    0 ROOT
