
     RDKit          3D

 12 11  0  0  0  0  0  0  0  0999 V2000
    1.3510    0.0204    0.0510 C   0  0  0  0  0  0  0  0  0  0  0  0
   -0.0819   -0.1505    0.0270 N   0  0  0  0  0  0  0  0  0  0  0  0
   -0.8640    1.0254   -0.2416 C   0  0  0  0  0  0  0  0  0  0  0  0
   -0.6205   -1.3604    0.2486 C   0  0  0  0  0  0  0  0  0  0  0  0
   -0.0013   -2.3719    0.4774 O   0  0  0  0  0  0  0  0  0  0  0  0
    1.7084    0.3836   -0.9153 H   0  0  0  0  0  0  0  0  0  0  0  0
    1.7987   -0.9484    0.2642 H   0  0  0  0  0  0  0  0  0  0  0  0
    1.6373    0.7342    0.8267 H   0  0  0  0  0  0  0  0  0  0  0  0
   -0.6747    1.7895    0.5176 H   0  0  0  0  0  0  0  0  0  0  0  0
   -1.9236    0.7770   -0.2348 H   0  0  0  0  0  0  0  0  0  0  0  0
   -0.6038    1.4397   -1.2198 H   0  0  0  0  0  0  0  0  0  0  0  0
   -1.7257   -1.3385    0.1991 H   0  0  0  0  0  0  0  0  0  0  0  0
  1  2  1  0
  2  3  1  0
  2  4  1  0
  4  5  2  0
  1  6  1  0
  1  7  1  0
  1  8  1  0
  3  9  1  0
  3 10  1  0
  3 11  1  0
  4 12  1  0
M  END
$$$$
