@<TRIPOS>MOLECULE
DMF
   12    11     1     0     0
SMALL
bcc


@<TRIPOS>ATOM
1 C1 1.3510 0.0200 0.0510 c3 1 DMF 0.079383333333
2 N1 -0.0820 -0.1500 0.0270 n 1 DMF -0.494716666667
3 C2 -0.8640 1.0250 -0.2420 c3 1 DMF 0.079383333333
4 C3 -0.6210 -1.3600 0.2490 c 1 DMF 0.660983333333
5 O1 -0.0010 -2.3720 0.4770 o 1 DMF -0.604016666667
6 H1 1.7080 0.3840 -0.9150 h1 1 DMF 0.041783333333
7 H2 1.7990 -0.9480 0.2640 h1 1 DMF 0.041783333333
8 H3 1.6370 0.7340 0.8270 h1 1 DMF 0.041783333333
9 H4 -0.6750 1.7900 0.5180 h1 1 DMF 0.041783333333
10 H5 -1.9240 0.7770 -0.2350 h1 1 DMF 0.041783333333
11 H6 -0.6040 1.4400 -1.2200 h1 1 DMF 0.041783333333
12 H7 -1.7260 -1.3390 0.1990 h5 1 DMF 0.028283333333
@<TRIPOS>BOND
     1     1     2 1   
     2     2     3 1   
     3     2     4 1   
     4     4     5 2   
     5     1     6 1   
     6     1     7 1   
     7     1     8 1   
     8     3     9 1   
     9     3    10 1   
    10     3    11 1   
    11     4    12 1   
@<TRIPOS>SUBSTRUCTURE
     1 DMF         1 TEMP              0 ****  ****    0 ROOT
