
     RDKit          3D

  8  7  0  0  0  0  0  0  0  0999 V2000
   -0.9649   -0.0131   -0.0637 C   0  0  0  0  0  0  0  0  0  0  0  0
    0.5009    0.3041    0.0029 C   0  0  0  0  0  0  0  0  0  0  0  0
    0.9905    1.3970   -0.0752 O   0  0  0  0  0  0  0  0  0  0  0  0
    1.2389   -0.8038    0.1653 O   0  0  0  0  0  0  0  0  0  0  0  0
   -1.1474   -0.6916   -0.8935 H   0  0  0  0  0  0  0  0  0  0  0  0
   -1.5344    0.9011   -0.1951 H   0  0  0  0  0  0  0  0  0  0  0  0
   -1.2652   -0.5140    0.8534 H   0  0  0  0  0  0  0  0  0  0  0  0
    2.1817   -0.5797    0.2061 H   0  0  0  0  0  0  0  0  0  0  0  0
  1  2  1  0
  2  3  2  0
  2  4  1  0
  1  5  1  0
  1  6  1  0
  1  7  1  0
  4  8  1  0
M  END
$$$$
