@<TRIPOS>MOLECULE
ACE
    8     7     1     0     0
SMALL
bcc


@<TRIPOS>ATOM
1 C1 -0.9650 -0.0130 -0.0640 c3 1 ACE -0.149975000000
2 C2 0.5010 0.3040 0.0030 c 1 ACE 0.635225000000
3 O1 0.9910 1.3970 -0.0750 o 1 ACE -0.551875000000
4 O2 1.2390 -0.8040 0.1650 oh 1 ACE -0.610975000000
5 H1 -1.1470 -0.6920 -0.8930 hc 1 ACE 0.077825000000
6 H2 -1.5340 0.9010 -0.1950 hc 1 ACE 0.077825000000
7 H3 -1.2650 -0.5140 0.8530 hc 1 ACE 0.077825000000
8 H4 2.1820 -0.5800 0.2060 ho 1 ACE 0.444125000000
@<TRIPOS>BOND
     1     1     2 1   
     2     2     3 2   
     3     2     4 1   
     4     1     5 1   
     5     1     6 1   
     6     1     7 1   
     7     4     8 1   
@<TRIPOS>SUBSTRUCTURE
     1 ACE         1 TEMP              0 ****  ****    0 ROOT
