
     RDKit          3D

 16 16  0  0  0  0  0  0  0  0999 V2000
    2.6834   -0.2392    0.2090 C   0  0  0  0  0  0  0  0  0  0  0  0
    1.7050    0.7892    0.1280 O   0  0  0  0  0  0  0  0  0  0  0  0
    0.3958    0.3944    0.0949 C   0  0  0  0  0  0  0  0  0  0  0  0
   -0.0670   -0.9219    0.1331 C   0  0  0  0  0  0  0  0  0  0  0  0
   -1.4402   -1.1851    0.0919 C   0  0  0  0  0  0  0  0  0  0  0  0
   -2.3548   -0.1361    0.0125 C   0  0  0  0  0  0  0  0  0  0  0  0
   -1.8983    1.1789   -0.0259 C   0  0  0  0  0  0  0  0  0  0  0  0
   -0.5277    1.4404    0.0153 C   0  0  0  0  0  0  0  0  0  0  0  0
    2.6447   -0.8913   -0.6699 H   0  0  0  0  0  0  0  0  0  0  0  0
    3.6684    0.2372    0.2263 H   0  0  0  0  0  0  0  0  0  0  0  0
    2.5759   -0.8148    1.1343 H   0  0  0  0  0  0  0  0  0  0  0  0
    0.6116   -1.7656    0.1947 H   0  0  0  0  0  0  0  0  0  0  0  0
   -1.7956   -2.2119    0.1219 H   0  0  0  0  0  0  0  0  0  0  0  0
   -3.4211   -0.3437   -0.0193 H   0  0  0  0  0  0  0  0  0  0  0  0
   -2.6057    2.0014   -0.0877 H   0  0  0  0  0  0  0  0  0  0  0  0
   -0.1745    2.4681   -0.0149 H   0  0  0  0  0  0  0  0  0  0  0  0
  1  2  1  0
  2  3  1  0
  3  4  2  0
  4  5  1  0
  5  6  2  0
  6  7  1  0
  7  8  2  0
  8  3  1  0
  1  9  1  0
  1 10  1  0
  1 11  1  0
  4 12  1  0
  5 13  1  0
  6 14  1  0
  7 15  1  0
  8 16  1  0
M  END
$$$$
