@<TRIPOS>MOLECULE
ANI
   16    16     1     0     0
SMALL
bcc


@<TRIPOS>ATOM
1 C1 2.6830 -0.2390 0.2090 c3 1 ANI 0.113825000000
2 O1 1.7050 0.7890 0.1280 os 1 ANI -0.328775000000
3 C2 0.3960 0.3940 0.0950 ca 1 ANI 0.123225000000
4 C3 -0.0670 -0.9220 0.1330 ca 1 ANI -0.179875000000
5 C4 -1.4400 -1.1850 0.0920 ca 1 ANI -0.097875000000
6 C5 -2.3550 -0.1360 0.0130 ca 1 ANI -0.164875000000
7 C6 -1.8980 1.1790 -0.0260 ca 1 ANI -0.097875000000
8 C7 -0.5280 1.4400 0.0150 ca 1 ANI -0.179875000000
9 H1 2.6450 -0.8910 -0.6700 h1 1 ANI 0.043825000000
10 H2 3.6680 0.2370 0.2260 h1 1 ANI 0.043825000000
11 H3 2.5760 -0.8150 1.1340 h1 1 ANI 0.043825000000
12 H4 0.6120 -1.7660 0.1950 ha 1 ANI 0.142125000000
13 H5 -1.7960 -2.2120 0.1220 ha 1 ANI 0.132125000000
14 H6 -3.4210 -0.3440 -0.0190 ha 1 ANI 0.132125000000
15 H7 -2.6060 2.0010 -0.0880 ha 1 ANI 0.132125000000
16 H8 -0.1740 2.4680 -0.0150 ha 1 ANI 0.142125000000
@<TRIPOS>BOND
     1     1     2 1   
     2     2     3 1   
     3     3     4 ar  
     4     4     5 ar  
     5     5     6 ar  
     6     6     7 ar  
     7     7     8 ar  
     8     8     3 ar  
     9     1     9 1   
    10     1    10 1   
    11     1    11 1   
    12     4    12 1   
    13     5    13 1   
    14     6    14 1   
    15     7    15 1   
    16     8    16 1   
@<TRIPOS>SUBSTRUCTURE
     1 ANI         1 TEMP              0 ****  ****    0 ROOT
