
     RDKit          3D

 13 13  0  0  0  0  0  0  0  0999 V2000
    0.5058    0.9317   -0.1902 C   0  0  0  0  0  0  0  0  0  0  0  0
   -0.7338    0.5141    0.5977 C   0  0  0  0  0  0  0  0  0  0  0  0
   -1.0257   -0.8592   -0.0075 C   0  0  0  0  0  0  0  0  0  0  0  0
    0.2223   -1.4100   -0.3975 O   0  0  0  0  0  0  0  0  0  0  0  0
    1.2254   -0.4078   -0.3497 C   0  0  0  0  0  0  0  0  0  0  0  0
    0.2180    1.3250   -1.1659 H   0  0  0  0  0  0  0  0  0  0  0  0
    1.1164    1.6699    0.3244 H   0  0  0  0  0  0  0  0  0  0  0  0
   -1.5690    1.2013    0.4850 H   0  0  0  0  0  0  0  0  0  0  0  0
   -0.4926    0.4172    1.6570 H   0  0  0  0  0  0  0  0  0  0  0  0
   -1.5040   -1.5462    0.6959 H   0  0  0  0  0  0  0  0  0  0  0  0
   -1.6668   -0.7650   -0.8953 H   0  0  0  0  0  0  0  0  0  0  0  0
    1.8823   -0.6016    0.5100 H   0  0  0  0  0  0  0  0  0  0  0  0
    1.8217   -0.4693   -1.2641 H   0  0  0  0  0  0  0  0  0  0  0  0
  1  2  1  0
  2  3  1  0
  3  4  1  0
  4  5  1  0
  5  1  1  0
  1  6  1  0
  1  7  1  0
  2  8  1  0
  2  9  1  0
  3 10  1  0
  3 11  1  0
  5 12  1  0
  5 13  1  0
M  END
$$$$
