@<TRIPOS>MOLECULE
THF
   13    13     1     0     0
SMALL
bcc


@<TRIPOS>ATOM
      1 C1           0.5060     0.9320    -0.1900 c5         1 THF      -0.106400
      2 C2          -0.7340     0.5140     0.5980 c5         1 THF      -0.106400
      3 C3          -1.0260    -0.8590    -0.0070 c5         1 THF       0.127400
      4 O1           0.2220    -1.4100    -0.3980 os         1 THF      -0.427600
      5 C4           1.2250    -0.4080    -0.3500 c5         1 THF       0.127400
      6 H1           0.2180     1.3250    -1.1660 hc         1 THF       0.051700
      7 H2           1.1160     1.6700     0.3240 hc         1 THF       0.051700
      8 H3          -1.5690     1.2010     0.4850 hc         1 THF       0.051700
      9 H4          -0.4930     0.4170     1.6570 hc         1 THF       0.051700
     10 H5          -1.5040    -1.5460     0.6960 h1         1 THF       0.044700
     11 H6          -1.6670    -0.7650    -0.8950 h1         1 THF       0.044700
     12 H7           1.8820    -0.6020     0.5100 h1         1 THF       0.044700
     13 H8           1.8220    -0.4690    -1.2640 h1         1 THF       0.044700
@<TRIPOS>BOND
     1     1     2 1   
     2     2     3 1   
     3     3     4 1   
     4     4     5 1   
     5     5     1 1   
     6     1     6 1   
     7     1     7 1   
     8     2     8 1   
     9     2     9 1   
    10     3    10 1   
    11     3    11 1   
    12     5    12 1   
    13     5    13 1   
@<TRIPOS>SUBSTRUCTURE
     1 THF         1 TEMP              0 ****  ****    0 ROOT
